test_molecule.gamout
 OpenBabel03262414353D

 31 30  0  0  1  0  0  0  0  0999 V2000
   -0.7673   -0.7653    0.3845 C   0  0  0  0  0  0  0  0  0  0  0  0
   -0.0523   -0.4270   -0.3732 H   0  0  0  0  0  0  0  0  0  0  0  0
   -1.6952    0.2998    0.7508 N   0  0  0  0  0  0  0  0  0  0  0  0
   -0.2203   -1.0720    1.2774 H   0  0  0  0  0  0  0  0  0  0  0  0
   -1.3182   -1.6223   -0.0111 H   0  0  0  0  0  0  0  0  0  0  0  0
   -2.6738    0.6975   -0.0745 C   0  0  0  0  0  0  0  0  0  0  0  0
   -1.5726    0.7676    1.6392 H   0  0  0  0  0  0  0  0  0  0  0  0
   -2.8846    0.2043   -1.1883 O   0  0  0  0  0  0  0  0  0  0  0  0
   -3.5513    1.8863    0.3976 C   0  0  1  0  0  0  0  0  0  0  0  0
   -5.0250    1.5749    0.0475 C   0  0  2  0  0  0  0  0  0  0  0  0
   -3.2512    2.7180   -0.2452 H   0  0  0  0  0  0  0  0  0  0  0  0
   -3.3714    2.2892    1.7784 N   0  0  0  0  0  0  0  0  0  0  0  0
   -5.0485    1.0981   -0.9321 H   0  0  0  0  0  0  0  0  0  0  0  0
   -5.9607    2.7937    0.0912 C   0  0  1  0  0  0  0  0  0  0  0  0
   -5.6242    0.2832    1.2117 Cl  0  0  0  0  0  0  0  0  0  0  0  0
   -5.4091    3.9956   -1.4207 Br  0  0  0  0  0  0  0  0  0  0  0  0
   -5.7856    3.3856    0.9915 H   0  0  0  0  0  0  0  0  0  0  0  0
   -7.4391    2.4407   -0.0470 C   0  0  0  0  0  0  0  0  0  0  0  0
   -7.6692    1.9159   -0.9756 H   0  0  0  0  0  0  0  0  0  0  0  0
   -8.3513    3.6414    0.0273 N   0  3  0  0  0  0  0  0  0  0  0  0
   -7.7311    1.8085    0.7924 H   0  0  0  0  0  0  0  0  0  0  0  0
   -8.2474    4.2796   -0.7734 H   0  0  0  0  0  0  0  0  0  0  0  0
   -8.1855    4.1746    0.8896 H   0  0  0  0  0  0  0  0  0  0  0  0
   -3.7557    1.6787    2.4949 H   0  0  0  0  0  0  0  0  0  0  0  0
   -2.7710    3.4281    2.2694 C   0  0  0  0  0  0  0  0  0  0  0  0
   -2.7316    3.6121    3.4868 O   0  0  0  0  0  0  0  0  0  0  0  0
   -2.1669    4.4001    1.2812 C   0  0  0  0  0  0  0  0  0  0  0  0
   -1.3744    3.9299    0.6875 H   0  0  0  0  0  0  0  0  0  0  0  0
   -1.7354    5.2312    1.8405 H   0  0  0  0  0  0  0  0  0  0  0  0
   -2.9184    4.7991    0.5909 H   0  0  0  0  0  0  0  0  0  0  0  0
   -9.3279    3.3251    0.0373 H   0  0  0  0  0  0  0  0  0  0  0  0
  1  3  1  0  0  0  0
  1  4  1  0  0  0  0
  2  1  1  0  0  0  0
  3  7  1  0  0  0  0
  5  1  1  0  0  0  0
  6  9  1  0  0  0  0
  6  3  1  0  0  0  0
  8  6  2  0  0  0  0
  9 11  1  6  0  0  0
  9 12  1  0  0  0  0
 10 13  1  6  0  0  0
 10 14  1  0  0  0  0
 10  9  1  0  0  0  0
 10 15  1  0  0  0  0
 12 25  1  0  0  0  0
 12 24  1  0  0  0  0
 14 17  1  1  0  0  0
 16 14  1  0  0  0  0
 18 20  1  0  0  0  0
 18 14  1  0  0  0  0
 18 21  1  0  0  0  0
 19 18  1  0  0  0  0
 20 31  1  0  0  0  0
 20 23  1  0  0  0  0
 22 20  1  0  0  0  0
 25 26  2  0  0  0  0
 27 29  1  0  0  0  0
 27 25  1  0  0  0  0
 28 27  1  0  0  0  0
 30 27  1  0  0  0  0
M  CHG  1  20   1
M  END
